scripts/data/pwf/EPB.PWF
TITU
PN 22-24 2022 MINC                                                              
DOPC IMPR
(Op) E (Op) E (Op) E (Op) E (Op) E (Op) E (Op) E (Op) E (Op) E (Op) E
QLIM L VLIM L CREM L CTAP L STEP L NEWT L RCVG L RMON L FILE L CONT L
CELO L MFCT L CPHS L
99999
DCTE
(Mn) ( Val) (Mn) ( Val) (Mn) ( Val) (Mn) ( Val) (Mn) ( Val) (Mn) ( Val) 
BASE   100. DASE   100. TEPA     1. EXST     4. TETP     5. TBPA     5.
TLPP     1. TEPR     1. QLST     4. TLPR     1. TLPQ     2. TSBZ    .01
TSBA     5. ASTP    .05 VSTP     5. TLVC     .5 TLTC    .01 TSFR  .1E-7
ZMAX   500. TLPV     .5 VDVM   200. VDVN    40. TUDC   .001 TADC    .01
PGER    30. TPST     2. VFLD    70. ZMIN   .001 HIST    470 LFIT     10
ACIT    100 LFCV      1 DCIT     10 VSIT     10 LPIT     50 LFLP     10
PDIT     10 LCRT     51 LPRT     60 CSTP     5. ASDC     1.
ICIT     50 DMAX      5 FDIV     2. ICMN    .05 VART     5. TSTP     32
ICMV     .5 APAS    90. CPAR    70. VAVT     2. VAVF     5. VMVF    15.
VPVT     2. VPVF     5. VPMF    10. VSVF    20. VINF     1. VSUP     1.
TLSI     0. NDIR    20. STTR     5. TRPT   100. STIR     1. BFPO     1.
LFPO     .1 TLMT     .5 TLMF     .5 TLMG     .5                        
99999
DBAR
(Num)OETGb(   nome   )Gl( V)( A)( Pg)( Qg)( Qn)( Qm)(Bc  )( Pl)( Ql)( Sh)Are(Vf)M(1)(2)(3)(4)(5)(6)(7)(8)(9)(10
    9 L1 VANGRA-3--000 51026-21.   0.   0.   0.   0.                      441000                                   
   10 L1 VANGRA-1--1GR 51016-14. 650.121.9-211. 414.        32.15.49      441000                                   
   11 L1 VANGRA-2--000 5 976-21.   0.   0.   0.   0.        65. 31.5      441000                                   
   12 L1 VLCBARRET-6GR 510039.91 894.-8.44-540. 420.                       11000                                   
   13 L1 TLCBARRET-000 510085.39   0.   0.   0.   0.                       11000                                   
   14 L1 VFUNIL----3GR 51015-28. 175.20.71-150. 150.       1.14   0.       11000                                   
   16 L1 VFURNAS---7GR 5 9952.511036.-29.9-350. 350.                       11000                                   
   17 L1 TFURNAS---000 51007 -4.   0.   0.   0.   0.                       11000                                   
   18 L1 VITUMBIAR-5GR 5 98527.21801.-225.-455. 500.                       11000                                   
   19 L1 TITUMBIAR-000 5101518.9   0.   0.   0.   0.                       11000                                   
   20 L1 VMARIMBON-7GR 5102819.91205.-448.-560. 560.                       11000                                   
   21 L1 VMANSO----4GR 5 97538.4 170.-7.81 -80.  84.                       11020                                   
   22 L1 VM.MOR.A--5GR 5100311.3 262.10.02-100. 105.        1.8   0.       11000                                   
   24 L1 VM.MOR.B--4GR 5 9858.96 145.36.72 -24.  62.        1.2   0.       11000                                   
   28 L1 VP.COLOMB-4GR 5102426.2 259. 13.1-100. 100.       1.55   0.       11000                                   
   29 L  LN.MUTU-MT034 5100325.2                                          461000                                   
   30 L1 VSCRUZ-19-000 51008-31.   0.   0.   0.   0.                       11000                                   
   31 L1 VSCRUZ-13-000 5 965-31.   0.   0.   0.   0.                       11000                                   
   32 L1 VSCRUZ-16-000 51008-31.   0.   0.   0.   0.                       11000                                   
   34 L1 LN.MUT-PCH034 5100425.2   0.   0.   0.   0.                      461000                                   
   35 L1 VCORUMBA--3GR 5 96624.2 300.-75.6-180. 180.                       11000                                   
   36 L1 VS.MESA---3GR 5 98021.21021.-242.-570. 570.                       11000                                   
   37 L1 TS.MESA---000 5101116.2   0.   0.   0.   0.                       11000                                   
   38 L1 TGRAJAU-2-1CS 51010-30.   0.6.346-120. 200.   178  1.3   0.       11000                                   
   40 L  TB.GERAL1-000 510535.69                                           11000                                   
   41 L1 TVITORIA2-1CS 51007-48.   0.-5.47 -30.  60.   111                 11000                                   
   42 L  TBAND-1CER013 5 970 13.                                           11000                                   
   43 L  TBAND-2CER013 5 970 13.                                           11000                                   
   44 L1 TGRAJAU-1-1CS 51010-30.   0.6.074-120. 200.   178  1.3   0.       11000                                   
   45 L1 TVITORIA1-1CS 5 993-48.   0.13.52 -30.  60.   151                 11000                                   
   46 L  TCAMPOSCER013 51012-42.                                           11000                                   
   48 L1 TIBIUNA---4CS 51008-11.   0.-359.-10801200.    86                 11000                                   
   50 L1 TT.PRETO--1CS 51003-17.   0.38.46-180. 300.        .55   0.       11000                                   
   55 L  TBALTO-CER013 5 9823.59                                           11000                                   
   56 L  IIVAIP3-PR069 5 9622.57                                           11000                                   
   57 L  IIVAIP2-PR069 5 9632.56                                           11000                                   
   58 L  UIVAIP2-PR000 610252.56                                           11000                                   
   59 L  UIVAIP3-PR000 610252.57                                           11000                                   
   60 L  AF.IGUA-PR765 1 98915.3                                           11000                                   
   61 L  CFZ-500-PR500 3103420.3                                           11000                                   
   62 L  AIV-FZ1CAP765 11038-3.9                                           11000                                   
   63 L  AIV-FZ2CAP765 11037-3.8                                           11000                                   
   64 L  AIV-FZ3CAP765 11034-3.6                                           11034                                   
   65 L  AIVAIPO-PR765 110233.43                                           11000                                   
   66 L  BIVAIPO-PR525 210212.74                                           11000                                   
   67 L  IIVAIP1-PR069 5 9612.71                            .24   0.       11000                                   
   68 L  UIVAIP1-PR000 610222.71                                           11000                                   
   69 L  AIV-IT1CAP765 1101710.3                                           11000                                   
   70 L  AIV-IT2CAP765 1101810.3                                           11000                                   
   71 L  AIV-IT3CAP765 1101710.2                                           11000                                   
   72 L  AITABER-SP765 11026-3.2                                           11000                                   
   73 L  AIT-TP1CAP765 1 9935.05                                           11000                                   
   74 L  AIT-TP2CAP765 1 9935.05                                           11000                                   
   75 L  AIT-TP3CAP765 1 990 4.6                                           11000                                   
   76 L  ATPRETO-SP765 1 988-11.                                           11000                                   
   77 L  CTPRETO-SP500 31094-13.                                           11000                                   
   78 L  ETPRETO-SP345 51043-17.                                           11000                                   
   79 L  ITPRETO-SP069 5 998-13.                                           11000                                   
   80 L  UTPRAT3-SP000 6 998-13.                                           11000                                   
   81 L  UTPRAT4-SP000 6 993-17.                                           11000                                   
   82 L  ETPRET2-SP345 51045-16.                                           11000                                   
   85 L  CFOZ500-PR500 31025-8.3                            60.   0.       11000                                   
   86 L  EIBIUNA-SP345 51040-11.                            66.   0.       11000                                   
   87 L  CRESEND-RJ500 31090-19.                           105. 11.6      411015                                   
   90 L  EVIANA--ES345 51009-47.                                           11000                                   
   91 L  NVI1TAP-ES013 5 999-50.                                           11000                                   
   92 L  CSB-SM1CAP500 3107310.1                                           11000                                   
   93 L  CSB-SM2CAP500 3108310.8                                           11000                                   
   94 L  CSB-SM3CAP500 3108310.8                                           11000                                   
   95 L  NVI2TAP-ES013 5 999-50.                                           11000                                   
   96 L  NVI3TAP-ES013 5 999-50.                                           11000                                   
   97 L  EGUARU2-SP345 51025-19.                                           11000                                   
   98 L  GJACAR2-RJ138 51001-33.                                           11000                                   
   99 L  BARARAQ-SP525 210224.53                                           11000                                   
  100 L  CMARIMB-MG500 3107314.3                                           11000                                   
  101 L  CARARAQ-SP500 310734.53                                           11000                                   
  102 L  CP.CALD-MG500 31064 -4.                                           11000                                   
  103 L  CCAMPIN-SP500 31060-8.1                                           11000                                   
  104 L  CC.PAUL-SP500 31093-16.                                           11000                                   
  105 L  CANGRA--RJ500 31078-21.                                           11000                                   
  106 L  CADRIAN-RJ500 31070-23.                                           11000                                   
  107 L  CGRAJAU-RJ500 31064-26.                                           11000                                   
  108 L  CS.JOSE-RJ500 31058-25.                                           11000                                   
  109 L  CBYPSAD-RJ500 31071-23.                                           11000                                   
  110 L  UGR1T52-RJ000 61010-30.                                           11000                                   
  111 L  NVIT2CI-ES013 51016-48.                                           11000                                   
  112 L  CBATEI1-PR500 31081-15.                                           11035                                   
  113 L  CBATEI2-PR500 31081-15.                                           11035                                   
  114 L  XBATEIA-ES013 51081-15.                                          431000                                   
  115 L  CBAT-BC-ES500 31013-22.                                          431000                                   
  116 L  GIMBTAP-RJ138 51024-34.                                           11000                                   
  118 L  UBANDT4-GO000 6 98511.7                                           11000                                   
  119 L  XBANDTE-GO013 5 98511.7                                           11000                                   
  120 L  EP.CALD-MG345 51023-8.7                                           11000                                   
  121 L  UPCAT51-MG000 6 993-9.8                                           11000                                   
  122 L  CIBIUNA-SP500 31080-12.                                           11000                                   
  123 L  ECAMPIN-SP345 51024-12.                                           11000                                   
  124 L  UCAMPI1-SP000 61008-13.                                           11000                                   
  125 L  CIBBAT1-PR500 31016 -9.                                           11000                                   
  126 L  EGUARUL-SP345 51026-19.                                           11000                                   
  127 L  EMO-RL1-SP345 51042-17.                                           11000                                   
  128 L  EMO-RL2-SP345 51042-17.                                           11015                                   
  129 L  EMOGI---SP345 51043-18.                                           11000                                   
  130 L  CIBBAT2-PR500 31016 -9.                                           11000                                   
  131 L  EM.MORA-MG345 510054.73                                           11000                                   
  133 L  UADRT1A-RJ000 61001-32.                                           11000                                   
  134 L  ELCBARR-SP345 510065.39                                           11000                                   
  135 L  UJACT1A-RJ000 61000-33.                                           11016                                   
  136 L  EFURNAS-MG345 51005 -4.                                           11000                                   
  137 L  UJACT2A-RJ000 61000-33.                                           11016                                   
  138 L  EITUTIN-MG345 51003-20.                                           11000                                   
  139 L  UADRT51-RJ000 61020-28.                                           11060                                   
  140 L  EADRIAN-RJ345 51020-28.                                           11000                                   
  141 L  UADRT53-RJ000 61020-29.                                           11000                                   
  142 L  UADRT55-RJ000 61021-29.                                           11060                                   
  143 L  UADRT2B-RJ000 61005-32.                                           11030                                   
  144 L  EJACARE-RJ345 51011-30.                                           11000                                   
  145 L  UADRT1B-RJ000 6 997-33.                                           11000                                   
  146 L  UADRT2A-RJ000 61000-33.                                           11000                                   
  147 L  ECAMPOS-RJ345 51020-42.                                           11000                                   
  148 L  UCAMPO1-RJ000 61005-45.                                           11000                                   
  149 L  EVITORI-ES345 51019-48.                                           11000                                   
  150 L  UVITAT1-ES000 61019-50.                                           11000                                   
  151 L  NVIT1CI-ES013 5 981-48.                                           11000                                   
  152 L  UVITAT2-ES000 61019-50.                                           11000                                   
  153 L  UVITAT3-ES000 61019-50.                                           11000                                   
  154 L  NVITAT2-ES013 51054-50.                                           11000                                   
  155 L  NVITAT3-ES013 51054-50.                                           11000                                   
  156 L  NVITAT4-ES013 51054-50.                                           11000                                   
  157 L  ECAMPCA-RJ345 51021-42.                                           11040                                   
  158 L  UVITAT4-ES000 61020-50.                                           11000                                   
  159 L  XJA-R30-RJ013 51000-33.                                           11016                                   
  160 L  XJB-R60-RJ013 51000-33.                                           11016                                   
  161 L  FMO-FCE-SP230 51019-19.                            .33   0.       11000                                   
  162 L  UCAMAT1-SP000 61010-15.                                           11000                                   
  163 L  XCAMPI--SP013 5 980-15.                                           11000                                   
  164 L  UPCAT02-MG000 61063-11.                                           11050                                   
  165 L  NP.CAL--MG013 51029-11.                                           11050                                   
  166 L  UJACT1B-RJ000 61000-33.                                           11016                                   
  167 L  XJA-R60-RJ013 51000-33.                                           11016                                   
  168 L  FBANDE2-GO230 5101111.9                                           11000                                   
  169 L  GSJOSE1-RJ138 51027-32.                                           11000                                   
  170 L  GP.CALD-MG138 51032-10.                                           11000                                   
  171 L  GCAMPIN-SP138 51016-15.                           1.01   0.       11000                                   
  172 L  GIMBARE-RJ138 51004-34.                                           11000                                   
  173 L  GADRIAN-RJ138 51043-32.                                           11000                                   
  174 L  GR.LEAO-RJ138 5 995-46.                                           11000                                   
  175 L  GCAMPOS-RJ138 51023-45.                            .25   0.       11000                                   
  176 L  UCAMPI2-SP000 61005-13.                                           11000                                   
  177 L  GVITORI-ES138 51010-50.                                           11000                                   
  178 L  GGRAJAU-RJ138 51010-30.                                           11000                                   
  179 L  UGR2T54-RJ000 61010-30.                                           11000                                   
  180 L  GJACAR1-RJ138 51001-33.                                           11000                                   
  181 L  GANGDEF-RJ138 51012-26.                                           11037                                   
  182 L  GFUNIL--RJ138 51009-31.                                           11000                                   
  183 L  GC.PAUL-SP138 51033-19.                                           11000                                   
  184 L  GS.CRUZ-RJ138 51008-31.                                           11000                                   
  185 L  GANGRA--RJ138 51013-23.                             3. 1.45       11000                                   
  186 L  NCAMPI2-SP013 51005-13.                                           11000                                   
  187 L  GM.MORA-MG138 510383.42                                           11000                                   
  189 L  UBGERT1-DF000 610535.69                                           11000                                   
  190 L  GP.COL--MG138 5102321.4                                           11000                                   
  192 L  NCM1CAP-RJ013 51000-45.                                           11000                                   
  193 L  NCM1REA-RJ013 51000-45.                                           11000                                   
  194 L  NADRT55-RJ013 51021-29.                                           11080                                   
  195 L  NADRT53-RJ013 51058-29.                           2.31   0.       11000                                   
  196 L  NCAMPI1-SP013 5 924-13.                                           11000                                   
  197 L  NADRT51-RJ013 51020-28.                                           11080                                   
  198 L  NPCALAT-MG013 5 910-9.9                           1.17   0.       11000                                   
  199 L  NVITAT1-ES013 51054-50.                            .42   0.       11000                                   
  200 L  UUCAMP1-RJ000 61011-46.                                           11000                                   
  201 L1 VRSIL-1UTE000 51011-46.   4.1.309 -6.5  11.       1.16   0.       11000                                   
  202 L  UUCAMP2-RJ000 61007-46.                                           11000                                   
  203 L  VRSIL-2UTE000 51007-46.                           1.16   0.       11000                                   
  204 L  NADRT1B-RJ013 5 997-33.                                           11000                                   
  205 L  NADRT2A-RJ013 51054-33.                                           11000                                   
  206 L  NADRT2B-RJ013 51048-32.                                           11030                                   
  208 L  NBGT1CI-DF013 510535.69                                           11000                                   
  209 L  XADRIAN-RJ013 51001-32.                                           11000                                   
  210 L  CITUMBI-MG500 3106418.9                                           11000                                   
  211 L  UCAMPO2-RJ000 61006-44.                                           11000                                   
  212 L  NCM2CAP-RJ013 51001-44.                                           11000                                   
  213 L  EMARIMB-MG345 5100112.1                                           11000                                   
  214 L  UMARIMB-MG000 6102511.5                                           11000                                   
  215 L  NCM2REA-RJ013 51001-44.                                           11000                                   
  216 L  EP.COL--MG345 510089.65                                           11000                                   
  217 L  EITUMBI-MG345 5101718.3                                           11000                                   
  218 L  EBANDEI-GO345 5 998 13.                                           11000                                   
  219 L  EB.SUL--DF345 5103111.5                                           11000                                   
  220 L  ECORUMB-GO345 5101818.8                                           11000                                   
  221 L  LB.GERA-DF034 510075.92                                           1 991                                   
  222 L  UBSULT2-DF000 610339.74                                           11000                                   
  223 L  UBANDT1-GO000 6 98311.6                                           11000                                   
  224 L  UBANDT2-GO000 6 98211.6                                           11000                                   
  225 L  FITUMBI-MG230 5100619.4                                           11000                                   
  226 L  FBANDEI-GO230 5101111.9                            .28   0.       11000                                   
  227 L  FB.GERA-DF230 510329.95                                           11000                                   
  228 L  FB.SUL--DF230 5103310.1                                           11000                                   
  229 L  FB.ALTO-GO230 510063.59                            .54   0.       11000                                   
  230 L  FS.MESA-GO230 51019 17.                                           11000                                   
...
99999
DLIN
(De )d O d(Pa )NcEP ( R% )( X% )(Mvar)(Tap)(Tmn)(Tmx)(Phs)(Bc  )(Cn)(Ce)Ns(Cq)(1)(2)(3)(4)(5)(6)(7)(8)(9)(10
   29      4903 1            40.         1.                      20. 20.   20.                                
   34        29 1     31.6  109.    .2                           50. 50.   50.                                
   38       17954          2.697         1.                     600.690.   75.                                
   40       208 1            20.                                 20. 22.  1732                                
   41       111 1         13.333         1.                      50. 50.   44.                                
   44       11052          2.688         1.                     600.690.  100.                                
   45       151 1            10.         1.                      50. 50.   31.                                
   46       147 1         13.054         1.                     120.120.   23.                                
   50        81 4           2.48         1.                     15001650  225.                                
   56        59 1          3.643         1.                     550.550.  251.                                
   57        58 1           3.62         1.                     550.550.   73.                                
   60        62 1     .076  1.84 927.8                          36844173  3684                                
   60        63 1     .076  1.85 929.1                          36844173  3684                                
   60        64 1      .08  1.89954.57                          36844173  3684                                
   61        60 1 T         .623       1.05                     16501650  1650                                
   61        60 2 T         .642       1.05                     16501650  1650                                
   61        60 3 T         .623       1.05                     16501650  1650                                
   61        60 4 T         .623       1.05                     16501650  1650                                
   62        65 1 T        -.749                                36844173  3683                                
   63        65 1 T        -.749                                36844173  3683                                
   64        65 1 T        -.749                                36844173  3683                                
   65        58 1           .822         1.                     16501650  115.                                
   65        59 1           .834         1.                     16501832  2598                                
   65        68 1           .697         1.                     16501815  1650                                
   65        69 1          -.778                                36844173  3683                                
   65        70 1          -.778                                36844173  3683                                
   65        71 1          -.778                                36844173  3683                                
   66        58 1           -.17      1.001 .8381.053         661650165032 92.                                
   66        59 1          -.167      1.001 .8381.053         661650183232251.                                
   66        68 1           -.03      1.001 .8381.053         6616501815321650                                
   67        68 1          3.544         1.                     16501815  1650                                
   69        72 1 T   .064  1.53  760.                          36844173  4133                                
   70        72 1 T    .06  1.53 755.7                          36844173  4133                                
   71        72 1 T    .06  1.54 762.9                          36844173  4133                                
   72        73 1          -.915                                36844173  3683                                
   72        74 1          -.915                                36844173  3683                                
   72        75 1          -.915                                36844173  3683                                
   73        76 1 T    .07  1.75 877.5                          36844173  4133                                
   74        76 1 T    .07  1.75  873.                          36844173  4133                                
   75        76 1 T    .07   1.8901.17                          36844173  4133                                
   76        80 3           .697         1.                     16501815   60.                                
   76        81 4           1.03         1.                     15001650  118.                                
   77        76 1           .666      1.097                     16501650  1650                                
   77        76 2            .67      1.097                     16501815  300.                                
   77        80 3           -.03      1.097                     16501815  150.                                
   77       104 1      .17  2.52214.77                          18552165  1855                                
   77       598 1 T   .106 1.441133.32                          18552252  1855                                
   78        76 5           1.01      1.051                     15001500  147.                                
   78        81 4           -.11      1.051                     15001650  103.                                
   78        82 1           1.26                                450.450.  1992                                
   78       449 1 T    .07   .6612.845                          11841392  1184                                
   78       449 2 T    .07   .6612.845                          11841392  1184                                
   78       464 3 T    .11   .9917.073                          912.1103  912.                                
   78       471 1    .0795 .779514.878                          11841392  1392                                
   78       471 2    .0795 .779614.876                          11841392  1392                                
   79        80 3          3.545         1.                     550.550.  150.                                
   82        76 6             .9      1.051                     15001650  1660                                
   82        76 7           .885      1.051                     15001800  1660                                
   82       420 1    .14241.432825.641                          937.1171  937.                                
   82       449 3 T    .07   .6612.845                          13501350  300.                                
   82       449 4 T    .07   .6612.845                          13501350  100.                                
   82       464 1 T     .1   .9517.073                          912.1103  100.                                
   82       464 2 T     .1   .9417.073                          912.1103  100.                                
   85      1103 3 T  .0056 .096910.041                          27283377  3377                                
   85      1103 4 T  .0054 .0936 9.691                          27283377  3377                                
   86        48 1         .71475      1.013                     10501050  1050                                
   86        78 2 T   .185   2.6  60.1                          12801613  1280                                
   86        82 1     .141 2.359 66.19                          12801613  300.                                
   86       122 1           1.91        .99                     750.750.  206.                                
   86       122 2           1.91        .99                     750.750.   33.                                
   86       122 3           1.91        .99                     750.900.  103.                                
   86       488 1    .09481.4987 41.91                          20202390  2020                                
   86       488 2    .09481.4987 41.91                          20202390  2020                                
   87      9605 1     .0971.4477123.61                          18552337  1855                                
   90      2590 1            .01         1.                     370.370.  370.                                
   90      2608 1         4.8974      1.004                     225.270.   51.                                
   90      2618 1         4.9124      1.004                     225.270.  150.                                
   90      2628 1         4.6901      1.004                     225.270.  100.                                
   90      3032 1      .23  2.62 45.02                          747.747.  747.                                
   97        86 1      .11  1.83 51.18                          17062150   25.                                
   97        86 2      .11  1.83 51.18                          17062150  136.                                
   98       135 1          -.508      .9998   .9  1.1         98225.254.32675.                                
   98       166 1          -.389      .9998   .9  1.1         98225.293.32800.                                
   98       178 1      .88  5.03 1.428                          194.247.  1500                                
   98       180 1            .01                                478.478.  478.                                
   98       289 1     .132 1.409  .857                          478.602.  217.                                
   98       293 1      .66  3.85  1.11                          207.207.  558.                                
   98      1640 1     .057  .614  .373                          478.602.  558.                                
   98      4102 1     .917 5.312 1.528                          207.207.  207.                                
   99       101 1            .01       .952                     99999999   50.                                
   99       556 1      .18  2.81 350.1                          20012001  2001                                
  100        20 1         .90286         1.                     15201520  1520                                
  100       214 1          2.978       1.05                     560.717.  560.                                
  100       535 1 T    .15   2.4 203.8                          17321732  1732                                
  100      3110 1    .11881.8126 159.6                          19922390  1992                                
  100      4598 1            .01   1.5                          18552337  1855                                
  100      4598 2            .01   1.5                          18552337  1855                                
  100      4598 3   .00583.08685 6.981                          17321732  1732                                
  101       102 1      .16  2.46 208.5                          18552337  1855                                
  101       103 1      .15  2.39 202.6                          18552337  1855                                
  102       121 1          2.929       1.05                     560.717.  560.                                
  102      1503 1      .11  1.91161.85                          18552337  1855                                
  103       124 1           2.94       1.05                     560.717.  560.                                
  103       176 1          2.988       1.05                     560.560.   75.                                
  103       609 1     .064  .98883.418                          18552337  1855                                
  103      6609 1     .025  .40534.087                          18552337   61.                                
  104        77 2      .12  1.91285.35                          27282728  150.                                
  104        87 2     .049  .783  66.5                          18552337   39.                                
  104       105 1      .09  1.48 119.6                          18552337  1855                                
  104       598 1     .076 1.179 99.91                          18552252  1855                                
  104       609 1     .138  2.14181.68                          18552337  1855                                
  104      1503 1      .05   .82 69.36                          18552337  1855                                
  104      9605 2      .14  2.19196.22                          18552337  1855                                
  104      9626 3    .10811.6851252.04                          24732590   72.                                
  105         9 1            .67       1.05                     15201520  1520                                
  105        10 1           1.97      1.075                     759.759.  759.                                
  105        11 1            .95        1.1                     14501450  1450                                
  105      9601 1      .08  1.29119.58                          18552337  558.                                
  105      9608 1 T     .1  1.56 131.2                          18552337  1855                                
  106       108 1      .02   .41  44.3                          25982598  2598                                
  106       109 1             .1                                99999999   15.                                
  106       139 1         2.1627       1.05                     560.644.  2598                                
  106       141 1         2.9216       1.05                     560.717.  560.                                
  106       142 1         3.2281       1.05                     560.717.  560.                                
  107       109 1      .03   .68  73.8                          25982598   83.                                
  107       11052           2.23       1.05                     600.690.   75.                                
  107       17954          2.263       1.05                     600.690.  150.                                
  109      9626 3    .0127 .198629.698                          24732590   72.                                
  112       895 1            .01       1.05                     12992252   88.                                
  113       895 1            .01       1.05                     12992252   88.                                
  114       115 1         -2.425                                19312124  1931                                
  114       895 1            .01       1.05                     26163715   88.                                
  115      6609 1   .259574.1804  647.                          26163715  2616                                
  116       172 1D     .13   .72  .207                          145.145.  145.                                
  116       173 1      .62  3.61 1.033                          153.193.  146.                                
  116      1732 1     2.29 13.23 3.804                          146.207.  146.                                
  119       118 1          15.04         1.                      75. 75.   75.                                
  120       121 1          -.526       1.03                     560.717.  560.                                
  120       126 1 T     .6  5.95  92.8                          598.598.  598.                                
  120       126 2 T    .61  6.02  93.8                          598.598.  598.                                
  120       164 2           7.52       .957                     150.150.  150.                                
  120       697 1     .376 4.19171.478                          717.717.  125.                                
  122       125 1         -2.051                                19312251  532.                                
  122       130 1         -2.051                                19312251  532.                                
  122      6609 1      .07  1.22102.26                          18552337  1855                                
  123       120 1 T   .359 3.945 66.68                          717.717.  598.                                
  123       124 1          -.521      1.019                     560.717.  560.                                
  123       162 1          5.561      1.004                     150.177.  166.                                
  123       176 1          -.543      1.019                     560.560.  206.                                
  125       112 1     .308 3.958444.84                          12992251  153.                                
  126        97 1            .01                                99999999  9999                                
  126       123 1     .252 2.761 46.52                          717.717.  717.                                
  126       442 1      .12  1.1718.479                          776.977.  558.                                
  127       129 1            .76                                956.956.  912.                                
  128       129 1            .76                                956.956.  912.                                
  129       697 1 T   .194 2.15936.822                          717.717.  125.                                
  130       113 1     .308 3.958444.84                          12992251  153.                                
  131        22 1          4.432         1.                     378.378.  378.                                
  131       187 1             3.      .9562   .9  1.1       -187400.400.32100.                                
  131       187 2             3.      .9562   .9  1.1       -187400.400.32  5.                                
  131      3012 1      .02  .214   3.6                          853.1075  853.                                
  134        12 1            .89       .999                     11361136  1136                                
  134        13 1           5.34       .999                     99999999  100.                                
  134       120 1      .56  6.16 105.3                          853.1075  853.                                
  134       120 2      .55  6.13 104.7                          853.1075  853.                                
  134      3012 1      .07   .79  13.3                          853.1075  853.                                
  134      3012 2      .07   .79  13.3                          853.1075  853.                                
  136        16 1         1.0971         1.                     12801280  1280                                
  136        17 1           7.68         1.                     99999999  100.                                
  136       120 1 T    .44   4.3  66.6                          776.977.  776.                                
  136       120 2 T    .44   4.3  66.6                          776.977.  776.                                
  136       131 1      .35  3.42  52.8                          776.956.  717.                                
  136       138 1      .65  6.46 100.8                          776.956.  776.                                
  136       138 2      .56  6.19 105.7                          853.956.  853.                                
  136       367 1 T    .22  2.1733.425                          776.956.  776.                                
  136       367 2 T    .18  1.7834.299                          11321132  1132                                
  138       331 1    .4225 4.39973.673                          11591159  1159                                
  140       133 1         4.7185      1.005                     225.225.  2728                                
  140       138 1 T    .65   6.5 101.4                          776.896.  776.                                
  140       138 2 T    .56  6.19 105.7                          853.896.  853.                                
  140       139 1          .2794         1.                     560.644.  1299                                
  140       141 1          -.272         1.                     560.717.  560.                                
  140       142 1           -.54         1.                     560.717.  560.                                
  140       143 1         4.6867      1.005                     225.252.  225.                                
  140       144 1      .13  1.25  19.3                          775.956.  717.                                
  140       145 1         4.4511      1.005                     225.225.  225.                                
  140       146 1         5.0556      1.005                     225.252.  225.                                
  140      1781 1       .3  3.34 55.83                          853.1075   30.                                
  140      9607 1     .212  2.35 40.23                          853.1075  853.                                
  140      9609 2     .037  .394 6.684                          853.1075  853.                                
  144       135 1           4.41      1.004                     225.254.  1650                                
  144       137 1         4.0328      1.004                     225.263.  225.                                
  144       166 1         4.4023      1.004                     225.293.  1650                                
  147       148 1         4.7705      1.004                     225.270.  225.                                
  147       157 1            .01                                99999999  9999                                
  147       211 2         4.5333      1.004                     225.270.  150.                                
  147      3032 1      .33  3.62 62.18                          747.747.  747.                                
  147      3032 2      .33  3.62 62.18                          717.717.  717.                                
  149        90 1      .07   .7512.691                          747.747.  747.                                
  149       111 1          5.382         1.                      60. 60.  122.                                
...
99999
DCSC
(De ) O  (Pa )NcEPB      (Xmin)(Xmax)( Xv )C ( Vsp) (Ext)Nst(Cn)(Ce)(Cq)(1)(2)(3)(4)(5)(6)(7)(8)(9)(10
 7592     5590 1          -1.59  -.53 -.637X  -.637  7592   999999999999
  235     7236 1          -1.59  -.53 -.637X  -.637   235   999999999999
 7594     5590 1          -1.59  -.53 -.637X  -.637  7594   999999999999
  235     7237 1          -1.59  -.53 -.637X  -.637   235   999999999999
99999
DCAI
(Num) O  Gr E (U) UOp ( P ) ( Q ) (A) (B) (C) (D) (Vfl) (Vf)
 5103    25     1   1 134.5  23.1                   70. 1000 
 5103    20     1   1  36.1   7.8                   70. 1000 
 5131    25     1   1   7.4    .9                   70. 1000 
 5131    80     1   1    0.    0.                   70. 1000 
 5203    30     1   1  52.5  24.7                   70. 1000 
 5212    80     1   1   14.   4.6                   70. 1000 
 5212    81     1   1    9.    3.                   70. 1000 
 5212    82     1   1   8.5   2.8                   70. 1000 
 5253    35     1   1  23.6   1.7                   70. 1000 
 5293    20     1   1  43.1  14.2                   70. 1000 
 5293    15     1   1  20.4   4.2                   70. 1000 
 5503    45     1   1 169.4  73.3                   70. 1000 
 5503    50     1   1   72.  23.4                   70. 1000 
 5513    50     1   1  20.1   2.9                   70. 1000 
 5513    45     1   1  53.2  17.5                   70. 1000 
 5526    50     1   1  64.7   17.                   70. 1000 
 5526    45     1   1  18.5   6.1                   70. 1000 
 5551    85     1   1  44.9  11.3                   70. 1000 
 5551    89     1   1    0.    0.                   70. 1000 
 5551    86     1   1  112.  36.8                   70. 1000 
 5593    50     1   1 132.3  26.2                   70. 1000 
 5593    55     1   1  19.9   1.2                   70. 1000 
 5602    50     1   1   9.3 -14.5                   70. 1000 
 5602    55     1   1 112.3 -12.2                   70. 1000 
 5633    35     1   1  28.7   5.6                   70. 1000 
 5633    40     1   1   71.  14.4                   70. 1000 
 5802    80     1   1   5.7  -1.9                   70. 1000 
 5802    81     1   1   21.   9.4                   70. 1000 
 5822    80     1   1    0.    0.                   70. 1000 
 5822    82     1   1    0.    0.                   70. 1000 
 5963    15     1   1    0.    0.                   70. 1000 
 5963    16     1   1  76.5  22.3                   70. 1000 
 5979    10     1   1    5.    0.                   70. 1000 
 5979    80     1   1   35.   7.1                   70. 1000 
 6203    20     1   1    0.    0.                   70. 1000 
 6203    15     1   1   2.2  -1.7                   70. 1000 
 6203    10     1   1  16.4   5.4                   70. 1000 
 6203    80     1   1    0.    0.                   70. 1000 
 6257    25     1   1  24.3  -1.5                   70. 1000 
 6257    10     1   1   3.9  -1.3                   70. 1000 
 6265    25     1   1    0.    0.                   70. 1000 
 6265    20     1   1   26.   8.6                   70. 1000 
 6265    15     1   1    0.    0.                   70. 1000 
 6265    10     1   1   8.5  -2.9                   70. 1000 
 6285    20     1   1   3.9   1.7                   70. 1000 
 6285    15     1   1   4.6    .4                   70. 1000 
 6313    10     1   1   41.   6.4                   70. 1000 
 6313    25     1   1  97.8  15.1                   70. 1000 
 6321    10     1   1   2.8    .9                   70. 1000 
 6321    80     1   1   27.  11.5                   70. 1000 
 6409    86     1   1   85.  27.9                   70. 1000 
 6409    87     1   1  125.  36.5                   70. 1000 
 6461    84     1   1  800. 200.5                   70. 1000 
 6461    87     1   1  83.7   17.                   70. 1000 
 6461    86     1   1  46.2  -13.                   70. 1000 
 6564    60     1   1    0.    0.                   70. 1000 
 6564    88     1   1  61.5  17.9                   70. 1000 
 6565    60     1   1    0.    0.                   70. 1000 
 6565    86     1   1  125.  36.5                   70. 1000 
 8271    70     1   1  15.3    4.                   70. 1000 
 8271    60     1   1   13.   4.3                   70. 1000 
 8351    60     1   1  46.5  10.9                   70. 1000 
 8351    86     1   1  40.8  13.4                   70. 1000 
 8351    87     1   1    0.    0.                   70. 1000 
99999
DGEI
(Num) OA Gr E(U)UOpUOn( Pg)( Qg)( Qn)( Qm)(Xtrf) ( Xd)( Xq)( Xl) (fp)( Sn)(Ptu )(Pmn )( R )
 5103  N 20 L  1  1  1   2.   0.   0.   0.   .01                   1.9999. 9999.    0.   0
 5203  N 30 L  1  1  1   0.   0.   0.   0. .0001                   1.9999. 9999.    0.   0
 5293  N 20 L  1  1  1 10.3   0.   0.   0. .0001                   1.9999. 9999.    0.   0
 5503  N 45 L  1  1  1   0.   0.   0.   0. .0001                   1.9999. 9999.    0.   0
 5593  N 50 L  1  1  1   5.   0.   0.   0. .0001                   1.9999. 9999.    0.   0
 5633  N 40 L  1  1  1 14.8   0.   0.   0. .0001                   1.9999. 9999.    0.   0
 5660  N 10 D  4  4  1  60.   0. -25.  38.  47.8                   1.9999. 9999.    0.   0
 5817  N 10 D  1  1  1 31.8   0.   0.   0. .0001                   1.9999. 9999.    0.   0
 5842  N 10 D  1  1  1 190.   0.-114. 158.  4.85                   1.9999. 9999.    0.   0
 6313  N 10 L  1  1  1 41.3   0.   0.   0. .0001                   1.9999. 9999.    0.   0
 6327  N 10 D  8  8  1  16.   0. -9.4  12. .0001                   1.9999. 9999.    0.   0
 9368  N 10 D  1  1  1  50.   0.-99999999. .0001                   1.9999. 9999.    0.   0
99999
DBSH
(NFr) O (NTo) Nc C (Vmn (Vmx Bctrl (Qini) T A (Extr
   40            D 0900 1100    40        C         
(G  O E (U) UOp (Sht ) M
10    D   1   0   -10. S
FBAN
(NFr) O (NTo) Nc C (Vmn (Vmx Bctrl (Qini) T A (Extr
   56            D 1000 1050    56  -180. C         
(G  O E (U) UOp (Sht ) M
10        2   1  -180. S
FBAN
(NFr) O (NTo) Nc C (Vmn (Vmx Bctrl (Qini) T A (Extr
   57            D 1000 1050    57  -180. C         
(G  O E (U) UOp (Sht ) M
10        3   1  -180. S
FBAN
(NFr) O (NTo) Nc C (Vmn (Vmx Bctrl (Qini) T A (Extr
   65            D 0900 1046    65  -330. C         
(G  O E (U) UOp (Sht ) M
10        1   1  -330. S
FBAN
(NFr) O (NTo) Nc C (Vmn (Vmx Bctrl (Qini) T A (Extr
   67            D 1000 1050    67  -180. C         
(G  O E (U) UOp (Sht ) M
10        3   1  -180. S
FBAN
(NFr) O (NTo) Nc C (Vmn (Vmx Bctrl (Qini) T A (Extr
   72            D 0900 1046    72  -660. C         
(G  O E (U) UOp (Sht ) M
10        1   1  -330. S
20        1   1  -330. S
FBAN
(NFr) O (NTo) Nc C (Vmn (Vmx Bctrl (Qini) T A (Extr
   78            D 0950 1050    78   600. C         
(G  O E (U) UOp (Sht ) M
10        4   3   200. S
FBAN
(NFr) O (NTo) Nc C (Vmn (Vmx Bctrl (Qini) T A (Extr
   79            D 1000 1050    79        C         
(G  O E (U) UOp (Sht ) M
10        2   0  -180. S
FBAN
(NFr) O (NTo) Nc C (Vmn (Vmx Bctrl (Qini) T A (Extr
   82            D 0950 1050    82   600. C         
(G  O E (U) UOp (Sht ) M
10        5   3   200. S
FBAN
(NFr) O (NTo) Nc C (Vmn (Vmx Bctrl (Qini) T A (Extr
   85            F 0950 1100    85  1540. C         
(G  O E (U) UOp (Sht ) M
10        3   3   280. S
20        2   2   350. S
FBAN
(NFr) O (NTo) Nc C (Vmn (Vmx Bctrl (Qini) T A (Extr
   86            F 0950 1050    86 2142.4 C         
(G  O E (U) UOp (Sht ) M
10        2   2    59. S
20        3   2  220.8 S
30        4   3   237. S
40        1   1  279.8 S
50        2   0   294. S
60        2   2   296. S
FBAN
(NFr) O (NTo) Nc C (Vmn (Vmx Bctrl (Qini) T A (Extr
  103     609  1 D 0950 1100   103        C     103 
(G  O E (U) UOp (Sht ) M
10        1   0 -112.4 S
FBAN
(NFr) O (NTo) Nc C (Vmn (Vmx Bctrl (Qini) T A (Extr
  104            D 0950 1100   104        C         
(G  O E (U) UOp (Sht ) M
10        1   0  -136. S
FBAN
(NFr) O (NTo) Nc C (Vmn (Vmx Bctrl (Qini) T A (Extr
  104      87  2 D 0950 1100   104        C     104 
(G  O E (U) UOp (Sht ) M
10        1   0  -136. S
FBAN
(NFr) O (NTo) Nc C (Vmn (Vmx Bctrl (Qini) T A (Extr
  105    9601  1 D 0950 1100   105        C     105 
(G  O E (U) UOp (Sht ) M
10        1   0  -136. S
FBAN
(NFr) O (NTo) Nc C (Vmn (Vmx Bctrl (Qini) T A (Extr
  106            D 0950 1100   106        C         
(G  O E (U) UOp (Sht ) M
10        1   0  -136. S
FBAN
(NFr) O (NTo) Nc C (Vmn (Vmx Bctrl (Qini) T A (Extr
  120            D 0950 1050   120        C         
(G  O E (U) UOp (Sht ) M
10        1   0   150. S
FBAN
(NFr) O (NTo) Nc C (Vmn (Vmx Bctrl (Qini) T A (Extr
  122            D 0950 1100   122        C         
(G  O E (U) UOp (Sht ) M
10        1   0  -180. S
FBAN
(NFr) O (NTo) Nc C (Vmn (Vmx Bctrl (Qini) T A (Extr
  123            D 0950 1050   123   100. C         
(G  O E (U) UOp (Sht ) M
10        2   1   100. S
FBAN
(NFr) O (NTo) Nc C (Vmn (Vmx Bctrl (Qini) T A (Extr
  126            D 0950 1050   126   250. C         
(G  O E (U) UOp (Sht ) M
10        1   1   100. S
20        1   1   150. S
FBAN
(NFr) O (NTo) Nc C (Vmn (Vmx Bctrl (Qini) T A (Extr
  138            D 0950 1050   138   -60. C         
(G  O E (U) UOp (Sht ) M
10        1   1   -60. S
20        1   0  -100. S
FBAN
(NFr) O (NTo) Nc C (Vmn (Vmx Bctrl (Qini) T A (Extr
  140            D 0950 1050   140   325. C         
(G  O E (U) UOp (Sht ) M
10        2   2  162.5 S
FBAN
(NFr) O (NTo) Nc C (Vmn (Vmx Bctrl (Qini) T A (Extr
 3966     147  1 D 0950 1050   147   -60. C     147 
(G  O E (U) UOp (Sht ) M
10        1   1   -60. S
FBAN
(NFr) O (NTo) Nc C (Vmn (Vmx Bctrl (Qini) T A (Extr
 3966     147  2 D 0950 1050   147        C     147 
(G  O E (U) UOp (Sht ) M
10        1   0   -60. S
FBAN
(NFr) O (NTo) Nc C (Vmn (Vmx Bctrl (Qini) T A (Extr
 3344     149  1 D 0950 1050   149        C     149 
(G  O E (U) UOp (Sht ) M
10        1   0   -60. S
FBAN
(NFr) O (NTo) Nc C (Vmn (Vmx Bctrl (Qini) T A (Extr
  154            D 1000 1050   154    20. C         
(G  O E (U) UOp (Sht ) M
10        3   2    10. S
FBAN
(NFr) O (NTo) Nc C (Vmn (Vmx Bctrl (Qini) T A (Extr
  155            D 1000 1050   155    20. C         
(G  O E (U) UOp (Sht ) M
10        3   2    10. S
FBAN
(NFr) O (NTo) Nc C (Vmn (Vmx Bctrl (Qini) T A (Extr
  156            D 1000 1050   156    20. C         
(G  O E (U) UOp (Sht ) M
10        3   2    10. S
FBAN
(NFr) O (NTo) Nc C (Vmn (Vmx Bctrl (Qini) T A (Extr
  157            D 0950 1050   157    60. C         
(G  O E (U) UOp (Sht ) M
10        2   1    60. S
FBAN
(NFr) O (NTo) Nc C (Vmn (Vmx Bctrl (Qini) T A (Extr
  159            D 1000 1050   159        C         
(G  O E (U) UOp (Sht ) M
10        1   0   -30. S
FBAN
(NFr) O (NTo) Nc C (Vmn (Vmx Bctrl (Qini) T A (Extr
  160            D 1000 1050   160        C         
(G  O E (U) UOp (Sht ) M
10        1   0   -30. S
FBAN
(NFr) O (NTo) Nc C (Vmn (Vmx Bctrl (Qini) T A (Extr
  163            D 1000 1050   163   -25. C         
(G  O E (U) UOp (Sht ) M
10        2   1   -25. S
FBAN
(NFr) O (NTo) Nc C (Vmn (Vmx Bctrl (Qini) T A (Extr
  165            D 1000 1050   165   -25. C         
(G  O E (U) UOp (Sht ) M
10        2   1   -25. S
FBAN
(NFr) O (NTo) Nc C (Vmn (Vmx Bctrl (Qini) T A (Extr
  167            D 1000 1050   167        C         
(G  O E (U) UOp (Sht ) M
10        1   0   -30. S
FBAN
(NFr) O (NTo) Nc C (Vmn (Vmx Bctrl (Qini) T A (Extr
  169            D 0950 1050   169   500. C         
(G  O E (U) UOp (Sht ) M
10        2   2   250. S
FBAN
(NFr) O (NTo) Nc C (Vmn (Vmx Bctrl (Qini) T A (Extr
  170            D 1000 1050   170        C         
(G  O E (U) UOp (Sht ) M
10        1   0   150. S
FBAN
(NFr) O (NTo) Nc C (Vmn (Vmx Bctrl (Qini) T A (Extr
  174            D 0950 1050   174   150. C         
(G  O E (U) UOp (Sht ) M
10        2   2    75. S
FBAN
(NFr) O (NTo) Nc C (Vmn (Vmx Bctrl (Qini) T A (Extr
  175            D 1000 1050   175    50. C         
(G  O E (U) UOp (Sht ) M
10        2   1    50. S
FBAN
(NFr) O (NTo) Nc C (Vmn (Vmx Bctrl (Qini) T A (Extr
  180            D 1000 1050   180   200. C         
(G  O E (U) UOp (Sht ) M
10        2   2   100. S
FBAN
(NFr) O (NTo) Nc C (Vmn (Vmx Bctrl (Qini) T A (Extr
  185            D 0950 1050   185    25. C         
(G  O E (U) UOp (Sht ) M
10        1   1    25. S
FBAN
(NFr) O (NTo) Nc C (Vmn (Vmx Bctrl (Qini) T A (Extr
  192            D 1000 1050   192    20. C         
(G  O E (U) UOp (Sht ) M
10        3   2    10. S
FBAN
(NFr) O (NTo) Nc C (Vmn (Vmx Bctrl (Qini) T A (Extr
  193            D 0950 1050   193   -25. C         
(G  O E (U) UOp (Sht ) M
10        2   1   -25. S
FBAN
(NFr) O (NTo) Nc C (Vmn (Vmx Bctrl (Qini) T A (Extr
  194            D 1000 1050   194        C         
(G  O E (U) UOp (Sht ) M
10        1   0   -50. S
FBAN
(NFr) O (NTo) Nc C (Vmn (Vmx Bctrl (Qini) T A (Extr
  195            D 1000 1050   195    20. C         
(G  O E (U) UOp (Sht ) M
10        3   2    10. S
FBAN
(NFr) O (NTo) Nc C (Vmn (Vmx Bctrl (Qini) T A (Extr
  196            D 1000 1050   196   -50. C         
(G  O E (U) UOp (Sht ) M
10        2   1   -50. S
FBAN
(NFr) O (NTo) Nc C (Vmn (Vmx Bctrl (Qini) T A (Extr
...